ca_results/summer/base_lines_with_realweather_T.csv
FromBus#,ToBus#,CKT,Pij(MW),Qij(MVAr),Sij(MVA),Pji(MW),Qji(MVAr),Sji(MVA),RateA,Ploss(MW),Qloss(MVAr),Current(A),Tcond(degC),lat_mid,lon_mid,bearing_deg,length_km,weather_site_id,weather_site_distance_km,weather_site_elevation_m,air_temperature,ghi,surface_pressure,surface_pressure_pa,wind_direction,wind_speed,wind_conductor_angle_deg,Tcond_realweather(degC),Ampacity_at_75C(A),Loading_realweather_%
101,102,A1,16.118435,-30.825264,34.785065,-16.107178,30.877798,34.826421,175.0,0.011257,0.052534,151.0103659346389,48.03849220275879,33.3768908526,-113.8307877345,168.0832196909272,4.366718050928278,272693,66.37854754514882,91.0,43.29999923706055,830.0,1002.0,100200.0,122.0,3.200000047683716,133.9167803090728,49.30401670764695,1032.0736797745278,14.631742761585532
101,103,A2,64.531693,-0.259658,64.532219,-62.062187,9.733578,62.820837,175.0,2.469506,9.473921,280.1499438268768,50.54244041442871,33.4664680426,-114.25302055200001,281.65513948457516,78.99713734402492,272693,27.889914770408065,91.0,43.29999923706055,830.0,1002.0,100200.0,122.0,3.200000047683716,20.34486051542484,52.68430732376146,892.3115504992188,31.39597864334964
101,105,A3,91.06086,-10.396042,91.652374,-89.076013,18.064766,90.889339,175.0,1.984846,7.668724,397.8850847775729,54.092092514038086,33.527831551000006,-113.917332536,332.7077807708397,32.97810897483768,272693,55.37740896846629,91.0,43.29999923706055,830.0,1002.0,100200.0,122.0,3.200000047683716,149.2922192291603,53.814224854177155,963.4977724943705,41.2959008454685
102,104,A4,72.045227,4.841408,72.20771,-70.18962,2.29987,70.227289,175.0,1.855607,7.141277,313.1883423159886,51.41837120056152,33.58499098295,-113.82567627200001,0.053868993317280456,50.552094829892674,273508,61.87228040205209,89.0,43.20000076293945,832.0,999.0,99900.0,122.0,3.0,121.94613100668272,51.000834626982396,1041.5330631958345,30.069937612446328
102,106,A5,68.572945,-9.724418,69.259033,-66.017301,19.538089,68.84781,175.0,2.555644,9.813671,300.3989703548049,51.06816291809082,33.54785744425,-114.003928834,322.14286051780334,53.63905217588826,272693,47.56965144659038,91.0,43.29999923706055,830.0,1002.0,100200.0,122.0,3.200000047683716,159.85713948219666,53.08249877725757,890.7119722186746,33.725713780015894
103,109,A6,-28.436893,-4.381958,28.77253,28.728551,5.501546,29.250584,175.0,0.291657,1.119588,129.1284455041762,47.76127815246582,33.72863454765,-114.48934004450001,38.03489934721705,54.229833774295344,273508,0.9566740748851706,89.0,43.20000076293945,832.0,999.0,99900.0,122.0,3.0,83.96510065278295,48.65549619569356,1078.7158164828188,11.970571259926723
103,124,A7,-63.315922,-31.845934,70.873619,63.431524,36.701229,73.283957,400.0,0.115602,4.855295,318.0742273524521,51.55533790588379,33.53989894155,-114.6634437025,62.122581397062504,1.4584863725043906,270245,1.1363138040058882,75.0,43.5,835.0,1001.0,100100.0,122.0,3.200000047683716,59.877418602937496,51.09573459625244,1059.3326668731872,30.025905676193858
104,109,A8,6.954613,-12.046571,13.909944,-6.903636,12.242927,14.055228,175.0,0.050977,0.196356,62.16932721689807,47.18142509460449,33.8663698982,-114.066850007,285.22792751338363,46.175372092212655,277498,39.42199663193729,151.0,42.29999923706055,833.0,989.0,98900.0,107.0,2.5999999046325684,1.7720724866163664,53.17171692073316,681.7502693611173,9.119076296832016
105,110,A9,28.40501,-27.91151,39.823322,-28.019936,29.384836,40.602776,175.0,0.385074,1.473326,174.51128564597136,48.38377952575683,33.786176454599996,-114.14599382399999,316.1102545640957,39.125724159032,273508,31.981051974502726,89.0,43.20000076293945,832.0,999.0,99900.0,122.0,3.0,165.88974543590427,52.156542935706966,823.750016524775,21.184981140540323
106,110,10,-50.198711,-129.681412,139.058182,50.635101,131.582824,140.989195,175.0,0.43639,1.901412,609.8635742947574,63.369741439819336,33.82541475805,-114.23744436449999,332.2035219612036,21.973081610449327,273508,25.547898565618038,89.0,43.20000076293945,832.0,999.0,99900.0,122.0,3.0,149.7964780387964,60.24176782042923,942.7859993722285,64.6873813040124
107,108,11,90.656624,20.829994,93.018875,-89.162262,-15.132739,90.437319,175.0,1.494362,5.697255,403.54098373282255,54.29221153259277,34.57823637615,-113.7314761945,191.80450991680215,27.040331428742554,280694,48.23352083597048,170.0,42.0,826.0,991.0,99100.0,137.0,2.5,125.19549008319785,52.391510009765625,1000.8290183522827,40.320671796386684
107,203,B1,157.527344,-4.419742,157.58934,-146.318201,47.388125,153.800684,175.0,11.209143,42.968384,683.6650872138181,67.41641044616699,35.0258321095,-113.838621218,341.18656177700467,77.23111035384919,273483,67.12170109617558,151.0,42.5,838.0,987.0,98700.0,137.0,3.0999999046325684,155.81343822299533,63.43371868133545,921.2724485667935,74.20878463014748
108,109,1,-27.930376,0.983914,27.947701,28.316576,0.498015,28.320955,175.0,0.3862,1.481929,124.76014710968934,47.71124839782715,34.18982353435,-114.034962272,220.15903880363092,78.21129921512714,280694,14.468759995973627,170.0,42.0,826.0,991.0,99100.0,137.0,2.5,96.84096119636908,47.956878662109375,1040.9841760538727,11.984826472831303
108,110,2,-29.031342,-14.222002,32.327763,29.517367,16.086984,33.616455,175.0,0.486026,1.864982,144.31299617836802,47.94909477233887,34.1860019329,-114.0273040675,218.96149073017423,77.97500234740549,280694,15.230903469254052,170.0,42.0,826.0,991.0,99100.0,137.0,2.5,98.03850926982577,48.112396240234375,1038.9794720378793,13.889879450198285
109,111,14,-77.000084,-13.674404,78.20488,77.136724,19.413284,79.542126,400.0,0.13664,5.73888,345.8073451136549,52.37549781799317,33.91241117325,-114.304699342,159.67425780531744,1.9031858797390406,273502,18.441799885429408,97.0,42.79999923706055,833.0,991.0,99100.0,107.0,2.700000047683716,127.32574219468256,51.77939837901067,1003.6141417602157,34.45620490232943
109,112,15,-122.683418,-26.037863,125.416077,123.03483,40.797165,129.622445,400.0,0.351412,14.759302,554.5664237569282,60.60662269592285,33.9156511436,-114.31084169450001,203.947168667828,1.1643839227143522,273502,17.80785802409589,97.0,42.79999923706055,833.0,991.0,99100.0,107.0,2.700000047683716,83.05283133217199,55.74565205572435,1048.6219145928005,52.88525979092061
110,111,16,-85.847649,17.912086,87.696419,86.01007,-11.090386,86.722136,400.0,0.162421,6.8217,377.0222412225823,53.37691307067871,33.9085895718,-114.2970411375,218.83185834528146,1.199999298332487,273502,19.225322946508676,97.0,42.79999923706055,833.0,991.0,99100.0,107.0,2.700000047683716,68.16814165471854,51.995179019453644,1028.404391386048,36.66089374768662
110,112,17,-132.917877,5.509492,133.032013,133.291636,10.188396,133.680454,400.0,0.373759,15.697887,571.9278879062518,61.44892692565918,33.91182954215,-114.30318349000001,263.52385649728956,1.8981503306103409,273502,18.59008452775047,97.0,42.79999923706055,833.0,991.0,99100.0,107.0,2.700000047683716,23.476143502710443,60.73469016003219,875.7842274815599,65.30465723856554
111,113,18,-255.674286,6.792493,255.764511,259.917986,27.157111,261.332869,500.0,4.243701,33.949604,667.1577413203523,66.47650718688965,34.1293332045,-114.287887337,2.7798809616962217,50.08528154115857,277498,4.623035951639475,151.0,42.29999923706055,833.0,989.0,98900.0,107.0,2.5999999046325684,104.22011903830378,59.19329287058645,1034.9994403027815,64.45972000962438
111,114,19,92.527481,-15.115389,93.75399,-92.058663,19.053465,94.009743,500.0,0.468819,3.938076,244.55582193016176,49.70505714416504,33.84073608285,-114.56051449450001,253.6860893720658,49.96150226236739,271871,2.0077707949584878,269.0,42.599998474121094,839.0,987.0,98700.0,107.0,2.700000047683716,33.313910627934206,50.97174498041568,936.5041460602279,26.113693458697625
112,113,20,-178.288727,19.416988,179.342957,180.319927,-3.167389,180.347743,500.0,2.0312,16.249599,460.37201446139,56.45087242126465,34.132573174849995,-114.29402968950001,4.126021058856338,49.43428786192113,277498,4.172118022807155,151.0,42.29999923706055,833.0,989.0,98900.0,107.0,2.5999999046325684,102.87397894114366,53.2850176261054,1036.7789137969953,44.4040680549115
112,123,21,-78.037727,-70.40255,105.101883,79.264256,80.316993,112.843439,500.0,1.226529,9.914443,269.7957389003869,50.287370681762695,34.14643314265,-114.691095425,307.21393123188295,87.0443510046333,269416,1.9810322366643094,324.0,41.70000076293945,849.0,971.0,97100.0,128.0,2.799999952316284,0.7860687681170475,56.092219300007855,688.1021386702778,39.20867611627445
113,123,22,18.52264,-88.567345,90.483498,-17.755345,94.635956,96.287156,500.0,0.767296,6.068612,231.53483256257837,49.42620277404785,34.3681403032,-114.6717226875,272.6456124243665,72.95310639099516,270224,1.0590202066430323,388.0,41.400001525878906,847.0,966.0,96600.0,137.0,2.799999952316284,44.354387575633496,48.97510408582457,1007.7230552493111,22.97603804502583
113,215,B2,283.261536,-58.858925,289.312073,-274.650836,123.439171,301.115112,500.0,8.6107,64.580246,740.3098229070173,70.78808784484863,34.7514356122,-114.425215633,342.78515118710203,92.50852375989442,273483,7.038480495579008,151.0,42.5,838.0,987.0,98700.0,137.0,3.0999999046325684,154.21484881289797,65.38726329803467,932.388400799089,79.39929564466334
114,116,23,-73.71933,-44.223423,85.966568,74.100256,48.718355,88.681036,500.0,0.380926,4.494932,224.03704952697228,49.2728328704834,33.71905866655,-115.07048464,254.58110202453383,48.11325865555416,262163,1.5254500733407452,387.0,42.79999923706055,848.0,984.0,98400.0,125.0,3.0999999046325684,50.418897975466166,49.642932917042344,1036.3115443735392,21.61869668859136
115,116,24,-107.051361,-26.615086,110.310272,107.299779,28.72664,111.078632,500.0,0.248418,2.111554,280.80325211478333,50.5588436126709,33.5836074796,-115.325283222,2.6007230139453554,17.236067799848346,256615,1.991195585655014,994.0,37.79999923706055,878.0,903.0,90300.0,123.0,3.4000000953674316,120.39927698605464,45.31398585160059,1146.9799543644317,24.481966842252525
115,121,1,-36.321865,3.47475,36.487694,36.407707,-2.773705,36.513211,500.0,0.085842,0.701044,92.88222167894814,47.39712715148926,33.5166525943,-115.700143213,272.1450146356158,68.75953430638423,249642,1.4759306061184725,343.0,41.900001525878906,868.0,983.0,98300.0,123.0,3.5,30.85498536438422,48.279684592198464,1005.9711186612424,9.23309029016229
115,121,2,-36.321865,3.47475,36.487694,36.407707,-2.773705,36.513211,500.0,0.085842,0.701044,92.88222167894814,47.39712715148926,33.5166525943,-115.700143213,272.1450146356158,68.75953430638423,249642,1.4759306061184725,343.0,41.900001525878906,868.0,983.0,98300.0,123.0,3.5,30.85498536438422,48.279684592198464,1005.9711186612424,9.23309029016229
115,124,26,63.810062,29.149813,70.152946,-63.431525,-26.337823,68.682162,500.0,0.378537,2.811989,178.5797009206249,48.44857215881348,33.524574389449995,-114.9929983545,86.0634407392426,62.52120431249092,263770,1.2987773397332119,181.0,43.099998474121094,843.0,985.0,98500.0,125.0,3.200000047683716,38.936559260757406,49.7593870654091,1002.0924633922735,17.820680969508405
116,117,27,-7.879622,18.857817,20.437849,7.895672,-18.718712,20.315802,500.0,0.016051,0.139104,51.67917295194935,47.12729454040527,33.6181318947,-115.48093336950001,252.22842579087137,31.107139968025567,253477,1.9140400448987045,626.0,40.29999923706055,872.0,951.0,95100.0,123.0,3.5,50.77157420912863,45.84879705540516,1109.7604975947208,4.656786132139147
116,119,28,-103.973427,-59.256405,119.673706,104.400863,62.533419,121.696215,500.0,0.427437,3.277014,302.60709677298905,51.127214431762695,33.76505507735,-115.3450942825,349.13986505303745,23.556813083232125,256610,0.7090697519730219,173.0,42.900001525878906,810.0,993.0,99300.0,135.0,3.299999952316284,145.86013494696255,51.05739225099387,998.9323056165108,30.293053400273116
117,118,29,4.023212,40.158127,40.359158,-3.98734,-39.907019,40.105724,500.0,0.035873,0.251108,102.61109498248146,47.48324394226074,33.55988168545,-115.720382362,257.0094374622221,15.136559396239369,248877,2.067412682375808,673.0,38.400001525878906,880.0,920.0,92000.0,123.0,3.5,45.99056253777792,44.42527080005675,1117.9487585435186,9.178515043584362
117,122,30,-11.918886,-16.048534,19.990379,11.943288,16.231546,20.152052,500.0,0.024402,0.183012,50.82451616817186,47.12401390075683,33.19704830715,-115.9825780325,217.2849118719248,105.44450604735857,244330,1.4502294277503673,-1.0,44.20000076293945,867.0,1014.0,101400.0,108.0,3.5,70.7150881280752,49.24600408590777,1089.7721202628236,4.663774675747289
118,121,1,6.983664,-14.541453,16.131504,-6.977738,14.592809,16.175256,500.0,0.005926,0.051355,41.26358081625149,47.08382606506348,33.53582614645,-115.9353669965,265.66484574225194,25.175829908557873,245078,0.7639325348498951,-54.0,43.79999923706055,863.0,1013.0,101300.0,123.0,3.5,37.33515425774806,49.519692632857186,1014.8210482052408,4.066094301968617
118,121,2,6.983664,-14.541453,16.131504,-6.977738,14.592809,16.175256,500.0,0.005926,0.051355,41.26358081625149,47.08382606506348,33.53582614645,-115.9353669965,265.66484574225194,25.175829908557873,245078,0.7639325348498951,-54.0,43.79999923706055,863.0,1013.0,101300.0,123.0,3.5,37.33515425774806,49.519692632857186,1014.8210482052408,4.066094301968617
119,120,1,-129.534958,-44.620739,137.004807,130.438637,51.85017,140.366229,500.0,0.903679,7.229431,340.7466936762837,52.2213077545166,34.056828753299996,-115.315800239,13.212646757626715,42.89429659955225,257390,1.5908349052243251,342.0,42.0,867.0,977.0,97700.0,128.0,3.0999999046325684,114.78735324237329,50.280120849609375,1074.7579687594014,31.70450497516286
119,120,2,-129.534958,-44.620739,137.004807,130.438637,51.85017,140.366229,500.0,0.903679,7.229431,340.7466936762837,52.2213077545166,34.056828753299996,-115.315800239,13.212646757626715,42.89429659955225,257390,1.5908349052243251,342.0,42.0,867.0,977.0,97700.0,128.0,3.0999999046325684,114.78735324237329,50.280120849609375,1074.7579687594014,31.70450497516286
120,123,1,-185.128616,-54.30405,192.928833,186.167948,61.925814,196.197123,500.0,1.039331,7.621764,468.8704951994261,56.796979904174805,34.31328943195,-115.1656291745,49.28215064958658,23.450450783620735,259756,2.2441267823391438,707.0,40.79999923706055,864.0,957.0,95700.0,159.0,3.0999999046325684,109.71784935041342,51.55630954850494,1097.8438553079484,42.70830436700914
120,123,2,-185.128616,-54.30405,192.928833,186.167948,61.925814,196.197123,500.0,1.039331,7.621764,468.8704951994261,56.796979904174805,34.31328943195,-115.1656291745,49.28215064958658,23.450450783620735,259756,2.2441267823391438,707.0,40.79999923706055,864.0,957.0,95700.0,159.0,3.0999999046325684,109.71784935041342,51.55630954850494,1097.8438553079484,42.70830436700914
121,122,34,-21.699448,-18.943924,28.805178,21.756713,19.376599,29.134296,500.0,0.057266,0.432675,73.46211715736285,47.25113868713379,33.172992768149996,-116.197562667,196.75137436176485,82.21478769358605,240603,1.5911941943704755,192.0,43.599998474121094,868.0,999.0,99900.0,108.0,3.200000047683716,91.24862563823515,48.75047153465857,1097.5885361109797,6.693047051826618
121,325,1,362.839508,35.362282,364.558624,-346.279535,98.49749,360.015655,500.0,16.559973,133.859772,929.737297475301,83.62195014953613,33.88950639194999,-116.599877614,309.8193181099749,126.63031816801767,233264,1.7623985492877712,289.0,43.099998474121094,895.0,996.0,99600.0,177.0,3.4000000953674316,47.180681890025085,69.20361786066496,1048.470655211924,88.67556691773851
123,217,B3,236.155197,-7.667957,236.279648,-231.09669,45.100918,235.45652,500.0,5.058507,37.432961,564.8700910810088,61.10363960266113,34.73487458595,-114.99497599799999,9.71178695733397,79.62675421689616,263740,1.4324488671760864,638.0,39.79999923706055,865.0,941.0,94100.0,159.0,3.4000000953674316,149.28821304266603,55.05398069196235,1020.8059346926893,55.33569818547943
201,202,B1,16.868261,-30.490185,34.845222,-16.855896,30.54789,34.889752,175.0,0.012365,0.057705,152.8223889753848,48.06309700012207,36.2728130805,-113.73374720749999,330.06786134221716,4.4011989362247,264540,155.6214060520281,765.0,39.70000076293945,873.0,927.0,92700.0,189.0,3.9000000953674316,38.93213865778284,45.90645959509857,1104.6890091957675,13.833973878914765
201,203,B2,-55.878265,24.004251,60.81599,58.193035,-15.123953,60.126228,175.0,2.31477,8.880299,266.72365237630316,50.21355628967285,35.80503293055,-113.848714785,192.97069564697503,102.80891251473568,269393,112.52290251671089,362.0,41.20000076293945,742.0,962.0,96200.0,184.0,4.099999904632568,171.02930435302497,50.484505428721604,888.1517696136377,30.031314635823204
201,205,B3,64.010002,-21.395325,67.491035,-62.919324,25.609309,67.931421,175.0,1.090678,4.213984,295.9987226691025,50.95088005065918,36.1674465537,-113.852268562,230.19480725713623,30.595990672773983,264540,139.93990431001146,765.0,39.70000076293945,873.0,927.0,92700.0,189.0,3.9000000953674316,138.80519274286377,47.36812417109468,1114.911760467185,26.549071699187134
202,204,B4,33.548122,2.649704,33.652599,-33.134334,-1.057246,33.151197,175.0,0.413788,1.592458,147.45736489296772,47.990922927856445,36.24012743795,-113.98393331349999,255.58339309310898,44.09339369915581,260525,137.5558724758757,1528.0,35.400001525878906,624.0,847.0,84700.0,189.0,3.700000047683716,113.41660690689102,39.80056874007278,1234.155266280836,11.948040001266204
202,206,B5,49.896774,-17.862358,52.997662,-48.399646,23.61133,53.85184,175.0,1.497128,5.748972,232.22264598369264,49.44096565246582,36.0386798677,-113.8181726305,193.11788205041233,57.370194606690454,264540,132.24501532331928,765.0,39.70000076293945,873.0,927.0,92700.0,189.0,3.9000000953674316,175.88211794958767,51.082452923488745,814.7992721839573,28.500595657290145
203,209,B6,113.247696,-36.251892,118.908539,-108.297655,55.253664,121.578573,175.0,4.950041,19.001772,530.5487914474606,59.47972297668457,35.5797547942,-114.0633830655,342.5346845645803,52.55291889027809,269393,81.32743088984492,362.0,41.20000076293945,742.0,962.0,96200.0,184.0,4.099999904632568,21.46531543541971,54.61758952006494,1007.9101095381766,52.638502821502364
203,224,B7,-183.617523,-19.512785,184.651413,184.393126,52.088095,191.608962,400.0,0.775603,32.57531,823.8818240481108,76.1658763885498,35.355419888750006,-113.968093071,80.9533122476027,1.4399883635815744,270208,72.2396121632983,185.0,42.70000076293945,848.0,989.0,98900.0,187.0,3.9000000953674316,106.0466877523973,61.386686828504025,1155.6501905660446,71.29162706619452
204,209,B8,-32.024662,-9.103262,33.293365,32.357955,10.387056,33.984234,175.0,0.333293,1.283794,148.3992187740136,48.003225326538086,35.9976998197,-114.18635032750001,171.49301131316565,43.3047846821941,264540,106.2828182492113,765.0,39.70000076293945,873.0,927.0,92700.0,189.0,3.9000000953674316,17.506988686834347,47.55664841662656,956.2996673787386,15.518066547150717
205,210,B9,0.401324,-35.831558,35.833805,-0.099865,36.98497,36.985105,175.0,0.30146,1.153412,156.2803227007209,48.11148643493652,35.93352645830001,-114.072961317,206.60422896348982,36.22324095579948,264540,107.77888525794216,765.0,39.70000076293945,873.0,927.0,92700.0,189.0,3.9000000953674316,162.39577103651018,47.6192224215265,957.1944257010251,16.326915254052498
206,210,10,-71.352356,-136.772446,154.265549,72.189287,140.419075,157.888599,175.0,0.836931,3.646629,668.1641705607658,66.5330982208252,35.7876102904,-114.02661411900002,270.1901520712983,24.58276518571172,265345,100.34878020381882,697.0,39.70000076293945,872.0,932.0,93200.0,184.0,4.199999809265137,93.80984792870169,53.23082709172013,1241.037772268771,53.8391486134446
207,208,11,-0.066,35.313168,35.313232,0.291925,-34.451828,34.453064,175.0,0.225925,0.86134,153.79478438474771,48.07703971862793,35.9931404214,-113.2002752525,238.0869400541825,24.9097490232365,269393,168.936732686421,362.0,41.20000076293945,742.0,962.0,96200.0,184.0,4.099999904632568,125.91305994581751,45.94042280372378,1172.793319529432,13.113545398302222
208,209,1,-86.423592,17.268797,88.132004,90.257071,-2.558934,90.293339,175.0,3.833479,14.709863,393.198800384276,53.92806053161621,35.869460766900005,-113.7342668105,259.4509328750614,76.42303064956775,269393,124.63888746734791,362.0,41.20000076293945,742.0,962.0,96200.0,184.0,4.099999904632568,104.54906712493857,48.40482098807843,1207.7468113163438,32.5563931695023
208,210,2,-64.438316,-12.104134,65.565285,66.518906,20.087793,69.485857,175.0,2.08059,7.983659,292.51793036333504,50.85902214050293,35.86081880785,-113.740291285,258.21609606641846,77.87575473426104,269393,123.57789086146938,362.0,41.20000076293945,742.0,962.0,96200.0,184.0,4.099999904632568,105.78390393358154,46.99579694537533,1205.9578949224115,24.25606495840014
209,211,14,-87.119835,-34.106331,93.558044,87.310934,42.132485,96.945064,400.0,0.191099,8.026155,408.9539042538726,54.486589431762695,35.803296077,-114.15919206150001,255.04753795152322,1.5606506659808639,264540,92.36331760486274,765.0,39.70000076293945,873.0,927.0,92700.0,189.0,3.9000000953674316,113.95246204847678,48.4126287144245,1178.9297255466645,34.68857349103166
209,212,15,-81.290543,-51.246346,96.095474,81.492148,59.713765,101.028233,400.0,0.201605,8.46742,420.0453279402304,54.89174842834473,35.7982763547,-114.1484987875,164.51081322878485,1.5763836313303292,264540,92.71146744646519,765.0,39.70000076293945,873.0,927.0,92700.0,189.0,3.9000000953674316,24.489186771215145,51.17872062333481,1015.3749400800427,41.36849466731155
210,211,16,-157.645554,13.657519,158.236053,158.155375,7.754956,158.345388,400.0,0.509821,21.412476,667.9656029702102,66.52161598205566,35.79465411795,-114.165216536,344.5036493141338,1.5763988480578353,264540,91.3311064017178,765.0,39.70000076293945,873.0,927.0,92700.0,189.0,3.9000000953674316,24.49635068586622,58.67556774884724,1015.4301397290271,65.78154191370174
210,212,17,-152.665787,-4.415604,152.72963,153.140743,24.363753,155.066694,400.0,0.474956,19.948149,644.7212089798973,65.23150444030762,35.78963439565,-114.154523262,75.03993290589335,1.560647321312595,264540,91.68344274909107,765.0,39.70000076293945,873.0,927.0,92700.0,189.0,3.9000000953674316,113.96006709410665,53.82447790743754,1178.9186605004647,54.68750564234903
211,213,18,-59.41906,-91.506264,109.105553,60.091774,96.887975,114.010091,500.0,0.672714,5.381711,276.1511031211446,50.44238090515137,35.9737901158,-114.3952240275,313.214519946109,56.101241393014526,260525,90.78880369689668,1528.0,35.400001525878906,624.0,847.0,84700.0,189.0,3.700000047683716,55.78548005389098,41.26019321089552,1215.6460389321358,22.7164071018341
211,214,19,-186.047211,41.619068,190.645523,187.914041,-25.937691,189.695679,500.0,1.866831,15.681377,482.5324654333363,57.36453056335449,35.68454797925,-114.33006002350001,228.5567635847391,39.217093492331436,264540,72.32209336765068,765.0,39.70000076293945,873.0,927.0,92700.0,189.0,3.9000000953674316,140.4432364152609,50.99340530113113,1107.605889821773,43.565357485683066
212,213,20,-70.542046,-60.906349,93.197441,71.02171,64.743668,96.103204,500.0,0.479665,3.837318,232.49236005367413,49.446706771850586,35.968770393499994,-114.3845307535,312.728141959339,58.27352990394753,260525,91.10269265356733,1528.0,35.400001525878906,624.0,847.0,84700.0,189.0,3.700000047683716,56.271858040661016,40.70843387643981,1216.6774140762002,19.10879230302809
212,223,21,-164.090836,-23.171196,165.718765,167.301608,49.124939,174.364812,500.0,3.210772,25.953743,413.4056296677739,54.64734077453613,35.80789751575,-114.84130532949999,272.07825544446206,125.42411855974576,257353,50.9569086479279,899.0,38.70000076293945,878.0,896.0,89600.0,189.0,3.5999999046325684,96.92174455553794,47.71118675792968,1182.9969585091292,34.945620670806115
213,223,22,-148.893494,3.252392,148.929001,151.176237,14.802033,151.89916,500.0,2.282743,18.054424,360.3180262395133,52.83068656921387,35.985222525750004,-115.07967101,246.747631827701,89.64501743467814,253425,49.52932837718548,1082.0,39.0,730.0,903.0,90300.0,207.0,3.4000000953674316,140.252368172299,47.55086708068848,1085.2497895429751,33.20139102641539
214,216,23,-358.73703,0.193821,358.737091,365.369503,78.069355,373.617047,500.0,6.632473,78.263176,914.1867846752266,82.48356819152832,35.4145503497,-114.6116655375,212.44947011073543,40.306364052426176,265345,34.124564386584666,697.0,39.70000076293945,872.0,932.0,93200.0,184.0,4.199999809265137,151.55052988926457,66.88238916072441,1069.3643039188953,85.48880688508208
215,216,24,330.973206,-77.890511,340.014984,-328.737957,96.890125,342.71904,500.0,2.235249,18.999615,840.2278963444511,77.27145195007324,35.205040229,-114.65326848149999,311.7614206360051,18.865123622721175,266961,16.946118844596615,770.0,38.900001525878906,874.0,921.0,92100.0,184.0,4.199999809265137,52.238579363994916,59.358608288705,1191.164667418681,70.53834951008672
215,221,1,-134.260147,-40.941116,140.363663,135.382095,50.103689,144.356127,500.0,1.121948,9.162573,346.8596115919746,52.40748405456543,35.23245624485,-114.8868583705,288.44475129996886,59.50731844131268,265345,2.742624339204692,697.0,39.70000076293945,872.0,932.0,93200.0,184.0,4.199999809265137,75.55524870003114,46.92208382847457,1221.0946442819957,28.405628770563336
215,221,2,-134.260147,-40.941116,140.363663,135.382095,50.103689,144.356127,500.0,1.121948,9.162573,346.8596115919746,52.40748405456543,35.23245624485,-114.8868583705,288.44475129996886,59.50731844131268,265345,2.742624339204692,697.0,39.70000076293945,872.0,932.0,93200.0,184.0,4.199999809265137,75.55524870003114,46.92208382847457,1221.0946442819957,28.405628770563336
215,224,26,187.069946,61.189758,196.823151,-184.393112,-41.304707,188.962691,500.0,2.676834,19.885052,486.3794535496595,57.52774238586426,35.252514202,-114.2680134135,67.35719566640654,60.481416120695556,270208,43.88396367981343,185.0,42.70000076293945,848.0,989.0,98900.0,187.0,3.9000000953674316,119.64280433359346,52.57811332881829,1135.9513396344967,42.81692679777611
216,217,27,-372.611237,-8.622268,372.710999,376.587505,43.083259,379.04395,500.0,3.976268,34.460991,914.0153307714686,82.47126579284668,35.17461923495,-114.825963111,221.90828713981625,25.93674508970559,266153,3.0592867147694096,754.0,39.20000076293945,871.0,924.0,92400.0,184.0,4.199999809265137,142.09171286018375,64.25895681848488,1132.7182818894075,80.69220258781945
216,219,28,402.926697,-42.384708,405.149841,-398.232802,78.371235,405.87118,500.0,4.693895,35.986526,993.5665084400227,88.44202995300293,35.34035338545,-114.85497218500001,307.96728213387195,28.554000463913425,264540,12.513730050764144,765.0,39.70000076293945,873.0,927.0,92700.0,189.0,3.9000000953674316,61.03271786612805,66.31360750080057,1171.0555804541732,84.84366797130889
217,218,29,-129.934387,-46.372471,137.961426,130.283414,48.815656,139.128488,500.0,0.349026,2.443185,332.9046554324761,51.98592185974121,35.10132792,-114.999522918,282.00426444829014,14.57343843515518,263731,2.135943719328595,927.0,37.5,877.0,903.0,90300.0,184.0,4.300000190734863,81.99573555170986,44.474196434020996,1271.577746432505,26.18044050915974
217,222,30,-15.556433,-19.023224,24.574085,15.594198,19.306463,24.817706,500.0,0.037765,0.283239,59.29793230387006,47.165842056274414,35.70936497125,-115.1056865365,346.55568240887214,142.19993312364048,257353,26.265606048579304,899.0,38.70000076293945,878.0,896.0,89600.0,189.0,3.5999999046325684,22.444317591127856,45.906450817790756,981.5674246682319,6.041147129950107
218,221,1,-34.249722,25.784531,42.870567,34.304338,-25.311186,42.631488,500.0,0.054617,0.473344,102.5945394314704,47.48324394226074,35.2156142699,-115.13791234499999,334.068802934961,24.91093291739191,260530,0.6477738589819187,1220.0,36.20000076293945,892.0,874.0,87400.0,184.0,4.199999809265137,29.931197065038987,42.67205388620641,1117.1059470255884,9.183957860455322
218,221,2,-34.249722,25.784531,42.870567,34.304338,-25.311186,42.631488,500.0,0.054617,0.473344,102.5945394314704,47.48324394226074,35.2156142699,-115.13791234499999,334.068802934961,24.91093291739191,260530,0.6477738589819187,1220.0,36.20000076293945,892.0,874.0,87400.0,184.0,4.199999809265137,29.931197065038987,42.67205388620641,1117.1059470255884,9.183957860455322
219,220,1,119.428383,-52.905594,130.622131,-118.637195,59.235096,132.603094,500.0,0.791188,6.329502,319.93997173781736,51.6086483001709,35.532956375,-115.2128843045,301.01727582000524,49.281334286649994,258141,6.324163197299666,954.0,38.900001525878906,889.0,903.0,90300.0,189.0,3.5999999046325684,67.98272417999476,46.666549435743946,1157.8711453926103,27.6317423584584
219,220,2,119.428383,-52.905594,130.622131,-118.637195,59.235096,132.603094,500.0,0.791188,6.329502,319.93997173781736,51.6086483001709,35.532956375,-115.2128843045,301.01727582000524,49.281334286649994,258141,6.324163197299666,954.0,38.900001525878906,889.0,903.0,90300.0,189.0,3.5999999046325684,67.98272417999476,46.666549435743946,1157.8711453926103,27.6317423584584
220,223,1,62.283241,-61.841904,87.770287,-62.077571,63.350151,88.695358,500.0,0.20567,1.508247,212.02700591236004,49.03744697570801,35.73552259805,-115.491516237,337.70442527395744,21.35444911338634,253425,5.089453500966101,1082.0,39.0,730.0,903.0,90300.0,207.0,3.4000000953674316,49.29557472604256,44.96310997009277,1119.07289225605,18.94666624306427
220,223,2,62.283241,-61.841904,87.770287,-62.077571,63.350151,88.695358,500.0,0.20567,1.508247,212.02700591236004,49.03744697570801,35.73552259805,-115.491516237,337.70442527395744,21.35444911338634,253425,5.089453500966101,1082.0,39.0,730.0,903.0,90300.0,207.0,3.4000000953674316,49.29557472604256,44.96310997009277,1119.07289225605,18.94666624306427
221,222,34,15.627131,-20.119064,25.475164,-15.594198,20.36789,25.652095,500.0,0.032933,0.248826,61.322992692992685,47.177324295043945,35.823651321149995,-115.2440759635,355.81008268792635,113.13137799107704,253425,27.06993274564634,1082.0,39.0,730.0,903.0,90300.0,207.0,3.4000000953674316,31.189917312073646,44.57997703552246,1041.5682386016406,5.887563619962335
223,318,1,135.677216,62.86438,149.533401,-132.845448,-40.210236,138.797608,500.0,2.831768,22.654144,357.4871833333821,52.74046897888184,35.6650814384,-116.25650849249999,255.190966299923,134.83363637092583,239061,1.6960774471141216,224.0,43.70000076293945,889.0,982.0,98200.0,174.0,3.4000000953674316,98.80903370007701,51.69524323367659,1091.9513528603932,32.73838000172221
301,302,C1,10.546551,-31.691196,33.400024,-10.539411,31.724515,33.429389,175.0,0.00714,0.033319,145.4412632782512,47.96385765075683,35.03875954075,-118.843312456,243.44298077505434,4.386662067124732,193839,1.9317872823073838,197.0,44.29999923706055,909.0,993.0,99300.0,357.0,1.7999999523162842,113.55701922494566,52.38576758522686,871.4525943299375,16.689520947502764
301,303,C2,-13.752384,15.314937,20.583376,14.05696,-14.146475,19.94294,175.0,0.304575,1.168462,89.63084002488252,47.37088203430176,35.132562363350004,-118.432657652,74.8245157929639,73.24899856739759,201352,1.1569499647389767,1234.0,37.29999923706055,936.0,873.0,87300.0,149.0,2.200000047683716,74.1754842070361,44.85603239862394,1017.6775017708618,8.8073913267136
301,305,C3,33.717838,-4.456062,34.011017,-33.444133,5.513559,33.895566,175.0,0.273705,1.057497,148.10184800639894,47.99912452697754,34.96073353885,-118.666126353,124.16098495024664,34.31766044565577,197187,1.159579646235395,1318.0,37.70000076293945,935.0,876.0,87600.0,357.0,1.7000000476837158,52.83901504975336,47.15471397816873,908.64019027971,16.299284314158303
302,304,C4,20.670568,12.654845,24.236698,-20.446005,-11.790617,23.602071,175.0,0.224563,0.864228,105.4087581577964,47.50948905944824,34.83101416905,-118.714222427,148.04905085666337,52.08829416605541,196510,2.4486343801899135,1006.0,38.0,934.0,886.0,88600.0,357.0,1.7999999523162842,28.95094914333663,48.19507598876953,837.5378719829828,12.585551254921414
302,306,C5,28.476858,-7.313998,29.401123,-28.025675,9.046542,29.44959,175.0,0.451183,1.732544,127.8695581334811,47.74651527404785,34.95855226255,-118.57052961950001,106.3161668365982,55.94519037768375,198553,1.5187727987860509,1572.0,33.79999923706055,945.0,816.0,81600.0,357.0,1.7999999523162842,70.6838331634018,42.85438044882176,986.9909168651603,12.955494923865674
303,309,C6,17.009418,-14.340212,22.24774,-16.845595,14.969085,22.535473,175.0,0.163824,0.628873,100.07160018952732,47.46027946472168,34.976650231700006,-118.08544598200001,188.13452627185995,54.11331791886194,206968,1.4846723558012531,783.0,40.099998474121094,929.0,919.0,91900.0,149.0,2.299999952316284,140.86547372814005,48.22114854994288,928.0948026594893,10.782476090025341
303,324,C7,-163.546371,6.351057,163.669647,164.165664,19.659213,165.338591,400.0,0.619292,26.010269,736.1953833398389,70.53547859191895,35.212062175599996,-118.039183389,146.93439430470073,1.454265274314389,208330,1.7152550570184055,708.0,40.79999923706055,922.0,932.0,93200.0,149.0,2.4000000953674316,2.0656056952992685,79.46358198914822,660.987270730268,111.37814840616822
304,309,C8,-34.01799,3.81425,34.231155,34.382188,-2.411412,34.466647,175.0,0.364198,1.402838,152.94743950357957,48.0655574798584,34.68392469455,-118.345463673,73.75738112970913,41.52056208016359,202769,0.8280799601706181,773.0,40.0,925.0,927.0,92700.0,189.0,3.0,115.24261887029087,46.70549392700195,1076.8324491552999,14.203457522435937
305,310,C9,-18.811863,-13.703781,23.274017,18.940765,14.196973,23.670797,175.0,0.128903,0.493192,101.7952471569409,47.47586250305176,34.801600393499996,-118.30750604849999,113.32976259868565,40.40249884327066,203469,1.1424100378689062,748.0,40.5,926.0,931.0,93100.0,149.0,2.5,35.67023740131435,48.437846183776855,933.9925557100449,10.898935600140149
306,310,10,-72.070343,-116.78743,137.23497,72.86352,120.243415,140.597195,175.0,0.793177,3.455985,598.8237019315532,62.79973030090332,34.808241774349995,-118.190362231,138.18711791697945,23.53186086187305,205576,0.9386546028337737,713.0,40.70000076293945,925.0,933.0,93300.0,149.0,2.4000000953674316,10.812882083020554,66.37666444955539,748.6181886189196,79.99053603496955
307,308,11,-47.999973,53.462837,71.848961,48.920827,-49.952084,69.917508,175.0,0.920853,3.510753,314.8573736154217,51.46512031555176,34.16299173335,-118.7662179435,56.26178119320775,24.75670932515617,195171,1.4464621072353085,372.0,29.5,907.0,976.0,97600.0,243.0,3.5999999046325684,6.738218806792247,42.61548709869385,977.9545503884195,32.19550167135764
308,309,1,-91.73259,24.203344,94.871864,96.266351,-6.806355,96.506667,175.0,4.533761,17.39699,427.2771058857526,55.16158103942871,34.4802378884,-118.39079997799999,40.21333607696363,74.5767423466253,202071,1.4426397722920923,762.0,39.599998474121094,919.0,939.0,93900.0,189.0,3.299999952316284,148.78666392303637,51.59624337313289,1010.7460096998276,42.2734397944985
308,310,2,-83.044075,1.497116,83.057571,86.486415,11.711861,87.275813,175.0,3.44234,13.208977,374.0687392711122,53.278493881225586,34.4770168747,-118.37939134349999,41.771399382824995,75.41473787810489,202071,1.436609056439648,762.0,39.599998474121094,919.0,939.0,93900.0,189.0,3.299999952316284,147.228600617175,50.23982856837392,1019.8946627902293,36.67719352974497
309,311,14,-103.396484,-13.079717,104.220497,103.64162,23.375399,106.244974,400.0,0.245135,10.295682,463.1782773109814,56.56487464904785,34.7389259,-118.11963760200001,63.413327538162264,1.5744173883172414,206974,2.0006750741101893,711.0,41.20000076293945,925.0,943.0,94300.0,189.0,3.0999999046325684,125.58667246183774,52.73225322324288,1052.8735355857991,43.99182443628215
309,312,15,-139.206497,-9.961854,139.562469,139.646076,28.424169,142.509508,400.0,0.439579,18.462315,620.2455930399875,63.91514778137207,34.7293605034,-118.12361469999999,154.41113041358733,1.577419398220969,206278,1.4537852103916686,706.0,41.099998474121094,924.0,944.0,94400.0,189.0,3.0,34.58886958641267,58.98261445709795,975.4116010633828,63.588088593964095
310,311,16,-142.466934,27.818447,145.157486,142.912273,-9.114202,143.202607,400.0,0.445339,18.704245,624.2962527043234,64.13002967834473,34.7357048863,-118.1082289675,334.52631029314165,1.573879005359757,206974,0.9642253309948795,711.0,41.20000076293945,925.0,943.0,94300.0,189.0,3.0999999046325684,34.47368970685835,58.97369607153087,982.3086257216808,63.55398256282912
310,312,17,-179.343765,32.264977,182.222992,180.045573,-2.789038,180.067174,400.0,0.701808,29.475939,783.7083308412347,73.52250099182129,34.726139489699996,-118.11220606549999,243.29540826571312,1.571676799018731,206974,1.1628829141889936,711.0,41.20000076293945,925.0,943.0,94300.0,189.0,3.0999999046325684,125.70459173428688,62.61692725939065,1052.6184117311432,74.45322275451583
311,313,18,-172.147858,-49.169136,179.032089,174.207937,65.649771,186.167392,500.0,2.060079,16.480635,468.2975943117899,56.77319526672363,34.50368100025,-118.065394118,170.8349978934301,53.70230936357421,207669,1.5864932931362066,1163.0,39.20000076293945,930.0,914.0,91400.0,189.0,3.299999952316284,18.165002106569887,54.772538700963196,911.8294799063169,51.358023032980206
311,314,19,-74.406036,34.908138,82.187813,74.789015,-31.691115,81.226373,500.0,0.382979,3.217023,214.9802045243814,49.094038009643555,34.8435290479,-117.8984061615,59.815032333039426,45.030436553750164,210340,0.7293270345475279,697.0,41.0,926.0,934.0,93400.0,149.0,2.5,89.18496766696057,48.49555015563965,1040.168648187719,20.66782198241991
312,313,20,-107.200829,-58.683651,122.212067,108.136841,66.171751,126.776484,500.0,0.936012,7.4881,319.1429380420432,51.58568382263184,34.49411560365,-118.069371216,169.66021641891973,51.728822906200705,207669,0.9469890389000564,1163.0,39.20000076293945,930.0,914.0,91400.0,189.0,3.299999952316284,19.33978358108027,50.666609150393924,921.9190798245932,34.617239736785166
312,323,21,-212.490845,33.048664,215.045517,218.588442,16.240246,219.190904,500.0,6.097597,49.28891,561.5669531892472,60.943708419799805,34.4879832208,-117.61655421500001,119.24125114688786,106.0334140418212,215042,0.37812492327164215,1076.0,39.0,926.0,908.0,90800.0,170.0,2.9000000953674316,50.75874885311214,54.01824760437012,1050.756817702937,53.444045637209435
313,323,22,-187.804794,62.090389,197.802567,192.274794,-26.736755,194.124832,500.0,4.47,35.353634,498.4166833522362,58.04444313049317,34.25913575225,-117.56603806300001,90.68381410399729,83.24113817308535,215722,1.5973050712788772,2210.0,28.0,955.0,771.0,77100.0,170.0,3.200000047683716,79.31618589600271,41.00484848022461,1252.6176802065804,39.79000865372089
314,316,23,-217.573029,10.986379,217.850235,220.223569,20.29,221.15629,500.0,2.65054,31.276379,577.3810450188555,61.71875953674317,35.0416656677,-117.46823389549999,61.27736452675009,44.927729327005714,217731,1.1754647648536851,757.0,40.79999923706055,920.0,924.0,92400.0,136.0,2.700000047683716,74.72263547324991,55.73003087720281,1040.647837431907,55.482846766270775
315,316,24,23.704517,24.050259,33.768612,-23.678196,-23.826524,33.591073,500.0,0.026322,0.223735,87.91118422113026,47.3569393157959,35.2021686149,-117.31901108699999,139.1505915831454,18.746587950621127,220478,1.894277405563819,1001.0,38.900001525878906,920.0,894.0,89400.0,136.0,3.0,176.8494084168546,50.572975265051355,738.4446604508315,11.904911624313076
315,321,1,-129.168274,8.102109,129.422134,130.255714,0.778652,130.258041,500.0,1.08744,8.880761,336.9298407753865,52.10566520690918,35.50565725275,-117.25089816349998,24.63912469184521,58.68035354688509,221165,1.909962955671058,792.0,40.79999923706055,913.0,929.0,92900.0,143.0,3.200000047683716,118.36087530815479,49.463862641459855,1080.4016363289625,31.185610003352263
315,321,2,-129.168274,8.102109,129.422134,130.255714,0.778652,130.258041,500.0,1.08744,8.880761,336.9298407753865,52.10566520690918,35.50565725275,-117.25089816349998,24.63912469184521,58.68035354688509,221165,1.909962955671058,792.0,40.79999923706055,913.0,929.0,92900.0,143.0,3.200000047683716,118.36087530815479,49.463862641459855,1080.4016363289625,31.185610003352263
315,324,26,166.320023,25.784445,168.306824,-164.165664,-9.780642,164.456761,500.0,2.154358,16.003803,438.15991638440295,55.575761795043945,35.2362759736,-117.71062519,263.78864241348344,59.25640398232974,213678,1.7859132718646786,892.0,39.20000076293945,925.0,901.0,90100.0,143.0,2.799999952316284,59.211357586516556,50.84914851740905,1051.381269714199,41.67469299729009
316,317,27,-162.32402,-0.696983,162.325531,163.183261,8.143738,163.386343,500.0,0.859241,7.446755,424.80015677777584,55.06890296936035,35.25840025645,-117.15370904899999,33.601264589227526,32.0703414274824,223263,1.5292915789926425,958.0,39.29999923706055,915.0,904.0,90400.0,142.0,3.4000000953674316,108.39873541077247,49.23322662135615,1133.1077265593044,37.48982967997992
316,319,28,-45.821388,12.168578,47.409637,45.89663,-11.591727,47.337815,500.0,0.075241,0.576851,124.06933836167424,47.70386695861816,35.0279991523,-117.188004079,154.70724354717186,27.138990967823084,222571,2.112861749248584,640.0,41.29999923706055,912.0,937.0,93700.0,136.0,3.4000000953674316,161.29275645282814,49.599228507817315,899.3575186789221,13.795330086740286
317,318,29,-120.207954,0.576188,120.209335,120.518512,1.597715,120.529102,500.0,0.310558,2.173903,312.762103298271,51.40606880187988,35.44212331835,-117.01620042849999,26.8584961244473,15.879932652806714,225363,0.9337792042101049,1006.0,39.79999923706055,910.0,912.0,91200.0,142.0,3.4000000953674316,115.1415038755527,47.82851603560994,1118.2075101045325,27.969951951854917
317,322,30,-42.975285,-3.629696,43.128296,43.259724,5.762989,43.641903,500.0,0.284439,2.133292,112.2117227304386,47.57674217224121,35.9086959435,-117.27055059599999,341.9673129068019,124.1052965213618,221155,2.268894183696831,816.0,40.5,909.0,924.0,92400.0,151.0,3.700000047683716,169.0326870931981,49.51354122161865,858.7299516169174,13.06717234203293
318,321,1,-31.380537,-1.938893,31.44038,31.412132,2.212719,31.48997,500.0,0.031595,0.273826,81.6020446471716,47.308549880981445,35.625578804750006,-117.045967096,334.8207162541743,29.440966906351033,224654,2.1245980851639903,744.0,41.900001525878906,903.0,946.0,94600.0,142.0,3.4000000953674316,167.17928374582573,50.58657925912121,839.7112398923854,9.717869759326963
318,321,2,-31.380537,-1.938893,31.44038,31.412132,2.212719,31.48997,500.0,0.031595,0.273826,81.6020446471716,47.308549880981445,35.625578804750006,-117.045967096,334.8207162541743,29.440966906351033,224654,2.1245980851639903,744.0,41.900001525878906,903.0,946.0,94600.0,142.0,3.4000000953674316,167.17928374582573,50.58657925912121,839.7112398923854,9.717869759326963
319,320,1,-89.556297,-5.570409,89.729378,89.994099,9.072827,90.450285,500.0,0.437802,3.502417,235.29863762964493,49.50575828552246,34.69004841255,-117.0939638955,173.7034075408551,50.917641569310206,223976,0.5349460739898468,1137.0,38.0,921.0,888.0,88800.0,147.0,3.9000000953674316,153.2965924591449,46.38031768798828,1041.6554007336733,22.588913518224558
319,320,2,-89.556297,-5.570409,89.729378,89.994099,9.072827,90.450285,500.0,0.437802,3.502417,235.29863762964493,49.50575828552246,34.69004841255,-117.0939638955,173.7034075408551,50.917641569310206,223976,0.5349460739898468,1137.0,38.0,921.0,888.0,88800.0,147.0,3.9000000953674316,153.2965924591449,46.38031768798828,1041.6554007336733,22.588913518224558
320,323,1,-137.098114,-10.98632,137.537598,137.70819,15.460208,138.573315,500.0,0.610076,4.473889,358.36822757547134,52.768354415893555,34.35773449745,-117.0883646675,191.09942568688564,23.73400695445522,223984,1.7037065959877034,1551.0,34.20000076293945,934.0,840.0,84000.0,147.0,3.9000000953674316,135.90057431311436,43.55456654102454,1183.103797958696,30.290514508853136
320,323,2,-137.098114,-10.98632,137.537598,137.70819,15.460208,138.573315,500.0,0.610076,4.473889,358.36822757547134,52.768354415893555,34.35773449745,-117.0883646675,191.09942568688564,23.73400695445522,223984,1.7037065959877034,1551.0,34.20000076293945,934.0,840.0,84000.0,147.0,3.9000000953674316,135.90057431311436,43.55456654102454,1183.103797958696,30.290514508853136
321,322,34,-30.002653,1.984504,30.068213,30.096278,-1.277116,30.123363,500.0,0.093625,0.707388,77.97292003769269,47.282304763793945,36.0921514299,-117.30031726349999,336.7951627128865,83.98330271350771,220456,0.23954791994549104,372.0,43.400001525878906,904.0,972.0,97200.0,151.0,3.799999952316284,174.2048372871135,52.70647461693443,775.6722584296606,10.05230226945952
323,325,35,-346.279572,91.533279,358.172974,346.279572,-79.266699,355.236191,722.0,0.0,12.266581,926.7275105927874,83.4005069732666,34.252447341449994,-117.12109914749999,265.12388154306666,1.4534200752008906,223288,1.6967119263507657,1700.0,34.70000076293945,936.0,853.0,85300.0,147.0,3.5,61.87611845693334,61.34680872057652,1188.842565909785,77.95208021371536
